REMARK  Name = candid10.pdb
REMARK  11 active torsions:
REMARK  status: ('A' for Active; 'I' for Inactive)
REMARK    1  A    between atoms: C1_1  and  N1_2
REMARK    2  A    between atoms: N2_5  and  C4_6
REMARK    3  A    between atoms: C4_6  and  C5_7
REMARK    4  A    between atoms: C5_7  and  N3_8
REMARK    5  A    between atoms: C5_7  and  C21_29
REMARK    6  A    between atoms: C6_9  and  C7_11
REMARK    7  A    between atoms: C7_11  and  C8_12
REMARK    8  A    between atoms: C13_19  and  C14_20
REMARK    9  A    between atoms: C21_29  and  C22_30
REMARK   10  A    between atoms: C21_29  and  C23_31
REMARK   11  A    between atoms: C21_29  and  C24_32
REMARK                            x       y       z     vdW  Elec       q    Type
REMARK                         _______ _______ _______ _____ _____    ______ ____
ROOT
ATOM      1  C7  UNL     1       1.106  -2.000   1.726  0.00  0.00    +0.000 C 
ENDROOT
BRANCH   1   2
ATOM      2  C8  UNL     1       2.632  -2.046   1.576  0.00  0.00    +0.000 C 
ATOM      3  C9  UNL     1       3.194  -3.437   1.223  0.00  0.00    +0.000 C 
ATOM      4  N4  UNL     1       3.443  -3.662  -0.184  0.00  0.00    +0.000 N 
ATOM      5  C10 UNL     1       3.890  -2.675  -1.032  0.00  0.00    +0.000 C 
ATOM      6  O2  UNL     1       4.372  -2.966  -2.122  0.00  0.00    +0.000 OA
ATOM      7  C11 UNL     1       3.757  -1.332  -0.521  0.00  0.00    +0.000 A 
ATOM      8  C12 UNL     1       4.132  -0.132  -1.095  0.00  0.00    +0.000 A 
ATOM      9  C13 UNL     1       3.768   0.922  -0.209  0.00  0.00    +0.000 A 
ATOM     10  C20 UNL     1       3.189   0.323   0.896  0.00  0.00    +0.000 A 
ATOM     11  N5  UNL     1       3.166  -1.028   0.680  0.00  0.00    +0.000 N 
ATOM     12  H17 UNL     1       0.000   0.000   0.000  0.00  0.00    +0.000 HD
BRANCH   9  13
ATOM     13  C14 UNL     1       3.955   2.358  -0.364  0.00  0.00    +0.000 A 
ATOM     14  C15 UNL     1       5.032   2.848  -1.117  0.00  0.00    +0.000 A 
ATOM     15  C16 UNL     1       5.220   4.222  -1.289  0.00  0.00    +0.000 A 
ATOM     16  C17 UNL     1       4.326   5.123  -0.714  0.00  0.00    +0.000 A 
ATOM     17  C18 UNL     1       3.253   4.643   0.034  0.00  0.00    +0.000 A 
ATOM     18 CL1  UNL     1       2.142   5.753   0.743  0.00  0.00    +0.000 Cl
ATOM     19  C19 UNL     1       3.064   3.272   0.212  0.00  0.00    +0.000 A 
ENDBRANCH   9  13
ENDBRANCH   1   2
BRANCH   1  21
ATOM     20  N3  UNL     1      -1.055  -2.026   0.662  0.00  0.00    +0.000 N 
ATOM     21  C6  UNL     1       0.300  -2.179   0.455  0.00  0.00    +0.000 C 
ATOM     22  O1  UNL     1       0.779  -2.446  -0.635  0.00  0.00    +0.000 OA
ATOM     23  H11 UNL     1       0.000   0.000   0.000  0.00  0.00    +0.000 HD
BRANCH  20  24
ATOM     24  C5  UNL     1      -1.990  -1.928  -0.467  0.00  0.00    +0.000 C 
BRANCH  24  25
ATOM     25  C21 UNL     1      -3.315  -2.716  -0.167  0.00  0.00    +0.000 C 
ATOM     26  C22 UNL     1      -2.965  -4.188   0.157  0.00  0.00    +0.000 C 
ATOM     27  C23 UNL     1      -4.123  -2.155   1.015  0.00  0.00    +0.000 C 
ATOM     28  C24 UNL     1      -4.220  -2.729  -1.416  0.00  0.00    +0.000 C 
ENDBRANCH  24  25
BRANCH  24  29
ATOM     29  C4  UNL     1      -2.129  -0.432  -0.897  0.00  0.00    +0.000 C 
BRANCH  29  34
ATOM     30  C1  UNL     1      -2.628   4.212   0.516  0.00  0.00    +0.000 C 
ATOM     31  N1  UNL     1      -2.224   3.366  -0.607  0.00  0.00    +0.000 NA
ATOM     32  C2  UNL     1      -1.063   2.523  -0.264  0.00  0.00    +0.000 C 
ATOM     33  C3  UNL     1      -1.382   1.319   0.658  0.00  0.00    +0.000 C 
ATOM     34  N2  UNL     1      -2.508   0.460   0.225  0.00  0.00    +0.000 NA
ATOM     35  C25 UNL     1      -3.660   1.321  -0.132  0.00  0.00    +0.000 C 
ATOM     36  C26 UNL     1      -3.330   2.511  -1.068  0.00  0.00    +0.000 C 
ENDBRANCH  29  34
ENDBRANCH  24  29
ENDBRANCH  20  24
ENDBRANCH   1  21
TORSDOF 7
