REMARK  Name = candid6.pdb
REMARK  8 active torsions:
REMARK  status: ('A' for Active; 'I' for Inactive)
REMARK    1  A    between atoms: C1_1  and  C2_2
REMARK    2  A    between atoms: C4_4  and  O1_5
REMARK    3  A    between atoms: C7_10  and  N3_11
REMARK    4  A    between atoms: C10_15  and  C11_17
REMARK    5  A    between atoms: C11_17  and  C12_18
REMARK    6  A    between atoms: C11_17  and  C19_26
REMARK    7  A    between atoms: C12_18  and  N5_19
REMARK    8  A    between atoms: N5_19  and  C13_20
REMARK                            x       y       z     vdW  Elec       q    Type
REMARK                         _______ _______ _______ _____ _____    ______ ____
ROOT
ATOM      1  N3  UNL     1       3.182  -0.759  -0.365  0.00  0.00    +0.000 N 
ATOM      2  C8  UNL     1       2.660  -1.387   0.876  0.00  0.00    +0.000 C 
ATOM      3  C9  UNL     1       1.313  -2.087   0.631  0.00  0.00    +0.000 C 
ATOM      4  N4  UNL     1       0.279  -1.145   0.178  0.00  0.00    +0.000 N 
ATOM      5  C10 UNL     1      -1.021  -1.329   0.628  0.00  0.00    +0.000 C 
ATOM      6  O2  UNL     1      -1.314  -2.327   1.299  0.00  0.00    +0.000 OA
ATOM      7  C25 UNL     1       0.786   0.016  -0.575  0.00  0.00    +0.000 C 
ATOM      8  C26 UNL     1       2.121  -0.274  -1.285  0.00  0.00    +0.000 C 
ENDROOT
BRANCH   1  17
ATOM      9  C1  UNL     1       6.478  -2.087   0.356  0.00  0.00    +0.000 C 
ATOM     10  C2  UNL     1       6.221  -1.019  -0.701  0.00  0.00    +0.000 C 
ATOM     11  C3  UNL     1       7.521  -0.287  -1.105  0.00  0.00    +0.000 C 
ATOM     12  C4  UNL     1       7.666   0.893  -0.134  0.00  0.00    +0.000 C 
ATOM     13  C5  UNL     1       6.214   1.212   0.131  0.00  0.00    +0.000 A 
ATOM     14  N1  UNL     1       5.774   2.397   0.574  0.00  0.00    +0.000 NA
ATOM     15  C6  UNL     1       4.441   2.450   0.706  0.00  0.00    +0.000 A 
ATOM     16  N2  UNL     1       3.561   1.463   0.427  0.00  0.00    +0.000 NA
ATOM     17  C7  UNL     1       4.059   0.292  -0.022  0.00  0.00    +0.000 A 
ATOM     18  C27 UNL     1       5.412   0.129  -0.180  0.00  0.00    +0.000 A 
BRANCH  12  19
ATOM     19  O1  UNL     1       8.366   1.969  -0.733  0.00  0.00    +0.000 OA
ATOM     20  H8  UNL     1       0.000   0.000   0.000  0.00  0.00    +0.000 HD
ENDBRANCH  12  19
ENDBRANCH   1  17
BRANCH   5  21
ATOM     21  C11 UNL     1      -2.143  -0.333   0.280  0.00  0.00    +0.000 C 
BRANCH  21  22
ATOM     22  C19 UNL     1      -1.829   1.105   0.688  0.00  0.00    +0.000 A 
ATOM     23  C20 UNL     1      -1.435   1.361   2.017  0.00  0.00    +0.000 A 
ATOM     24  C21 UNL     1      -1.111   2.653   2.439  0.00  0.00    +0.000 A 
ATOM     25  C22 UNL     1      -1.195   3.711   1.540  0.00  0.00    +0.000 A 
ATOM     26 CL1  UNL     1      -0.792   5.304   2.053  0.00  0.00    +0.000 Cl
ATOM     27  C23 UNL     1      -1.607   3.488   0.229  0.00  0.00    +0.000 A 
ATOM     28  C24 UNL     1      -1.924   2.193  -0.194  0.00  0.00    +0.000 A 
ENDBRANCH  21  22
BRANCH  21  29
ATOM     29  C12 UNL     1      -2.625  -0.634  -1.164  0.00  0.00    +0.000 C 
BRANCH  29  30
ATOM     30  N5  UNL     1      -3.871   0.017  -1.610  0.00  0.00    +0.000 NA
ATOM     31  H17 UNL     1       0.000   0.000   0.000  0.00  0.00    +0.000 HD
BRANCH  30  32
ATOM     32  C13 UNL     1      -5.080  -0.351  -0.859  0.00  0.00    +0.000 C 
ATOM     33  C14 UNL     1      -5.514  -1.804  -1.079  0.00  0.00    +0.000 C 
ATOM     34  C15 UNL     1      -6.754  -2.166  -0.252  0.00  0.00    +0.000 C 
ATOM     35  C16 UNL     1      -7.626  -0.965   0.112  0.00  0.00    +0.000 C 
ATOM     36  C17 UNL     1      -7.618   0.086  -0.987  0.00  0.00    +0.000 C 
ATOM     37  C18 UNL     1      -6.210   0.612  -1.285  0.00  0.00    +0.000 C 
ENDBRANCH  30  32
ENDBRANCH  29  30
ENDBRANCH  21  29
ENDBRANCH   5  21
TORSDOF 7
