REMARK  Name = candid7.pdb
REMARK  10 active torsions:
REMARK  status: ('A' for Active; 'I' for Inactive)
REMARK    1  A    between atoms: C1_1  and  C2_2
REMARK    2  A    between atoms: C6_9  and  N3_10
REMARK    3  A    between atoms: C9_14  and  C10_16
REMARK    4  A    between atoms: C10_16  and  C11_17
REMARK    5  A    between atoms: C10_16  and  C18_26
REMARK    6  A    between atoms: C11_17  and  C12_18
REMARK    7  A    between atoms: C18_26  and  C19_27
REMARK    8  A    between atoms: C19_27  and  C20_28
REMARK    9  A    between atoms: C19_27  and  C21_29
REMARK   10  A    between atoms: C19_27  and  N5_30
REMARK                            x       y       z     vdW  Elec       q    Type
REMARK                         _______ _______ _______ _____ _____    ______ ____
ROOT
ATOM      1  N3  UNL     1       2.618   0.318  -0.092  0.00  0.00    +0.000 N 
ATOM      2  C7  UNL     1       2.055   1.522  -0.761  0.00  0.00    +0.000 C 
ATOM      3  C8  UNL     1       0.934   1.181  -1.755  0.00  0.00    +0.000 C 
ATOM      4  N4  UNL     1      -0.170   0.466  -1.092  0.00  0.00    +0.000 N 
ATOM      5  C9  UNL     1      -1.475   0.805  -1.413  0.00  0.00    +0.000 C 
ATOM      6  O2  UNL     1      -1.724   1.605  -2.320  0.00  0.00    +0.000 OA
ATOM      7  C22 UNL     1       0.228  -0.437  -0.006  0.00  0.00    +0.000 C 
ATOM      8  C23 UNL     1       1.708  -0.856  -0.085  0.00  0.00    +0.000 C 
ENDROOT
BRANCH   1  17
ATOM      9  C1  UNL     1       4.973   0.445   2.431  0.00  0.00    +0.000 C 
ATOM     10  C2  UNL     1       4.906  -0.833   1.609  0.00  0.00    +0.000 C 
ATOM     11  O1  UNL     1       6.144  -1.573   1.801  0.00  0.00    +0.000 OA
ATOM     12  C3  UNL     1       6.945  -1.490   0.595  0.00  0.00    +0.000 C 
ATOM     13  C4  UNL     1       6.006  -0.979  -0.447  0.00  0.00    +0.000 A 
ATOM     14  N1  UNL     1       6.275  -0.859  -1.751  0.00  0.00    +0.000 NA
ATOM     15  C5  UNL     1       5.266  -0.329  -2.458  0.00  0.00    +0.000 A 
ATOM     16  N2  UNL     1       4.069   0.069  -1.977  0.00  0.00    +0.000 NA
ATOM     17  C6  UNL     1       3.856  -0.067  -0.652  0.00  0.00    +0.000 A 
ATOM     18  C24 UNL     1       4.832  -0.601   0.149  0.00  0.00    +0.000 A 
ENDBRANCH   1  17
BRANCH   5  19
ATOM     19  C10 UNL     1      -2.615   0.101  -0.663  0.00  0.00    +0.000 C 
BRANCH  19  20
ATOM     20  C11 UNL     1      -3.773   1.100  -0.455  0.00  0.00    +0.000 C 
BRANCH  20  21
ATOM     21  C12 UNL     1      -3.435   2.152   0.583  0.00  0.00    +0.000 A 
ATOM     22  C13 UNL     1      -3.571   1.865   1.949  0.00  0.00    +0.000 A 
ATOM     23  C14 UNL     1      -3.237   2.821   2.912  0.00  0.00    +0.000 A 
ATOM     24  C15 UNL     1      -2.764   4.072   2.514  0.00  0.00    +0.000 A 
ATOM     25 CL1  UNL     1      -2.349   5.239   3.710  0.00  0.00    +0.000 Cl
ATOM     26  C16 UNL     1      -2.629   4.361   1.159  0.00  0.00    +0.000 A 
ATOM     27  F1  UNL     1      -2.171   5.557   0.757  0.00  0.00    +0.000 F 
ATOM     28  C17 UNL     1      -2.959   3.412   0.195  0.00  0.00    +0.000 A 
ENDBRANCH  20  21
ENDBRANCH  19  20
BRANCH  19  29
ATOM     29  C18 UNL     1      -3.015  -1.128  -1.516  0.00  0.00    +0.000 C 
BRANCH  29  30
ATOM     30  C19 UNL     1      -3.760  -2.293  -0.811  0.00  0.00    +0.000 C 
ATOM     31  C20 UNL     1      -4.027  -3.403  -1.845  0.00  0.00    +0.000 C 
ATOM     32  C21 UNL     1      -2.946  -2.884   0.348  0.00  0.00    +0.000 C 
BRANCH  30  33
ATOM     33  N5  UNL     1      -5.049  -1.847  -0.279  0.00  0.00    +0.000 NA
ATOM     34  H26 UNL     1       0.000   0.000   0.000  0.00  0.00    +0.000 HD
ATOM     35  H27 UNL     1       0.000   0.000   0.000  0.00  0.00    +0.000 HD
ENDBRANCH  30  33
ENDBRANCH  29  30
ENDBRANCH  19  29
ENDBRANCH   5  19
TORSDOF 7
