REMARK  Name = candid3.pdb
REMARK  6 active torsions:
REMARK  status: ('A' for Active; 'I' for Inactive)
REMARK    1  A    between atoms: C1_2  and  C13_17
REMARK    2  A    between atoms: N1_3  and  C2_4
REMARK    3  A    between atoms: C2_4  and  C3_5
REMARK    4  A    between atoms: C3_5  and  N2_6
REMARK    5  A    between atoms: C17_23  and  C18_24
REMARK    6  A    between atoms: C21_27  and  N5_28
REMARK                            x       y       z     vdW  Elec       q    Type
REMARK                         _______ _______ _______ _____ _____    ______ ____
ROOT
ATOM      1  C13 UNL     1      -0.641   2.670  -1.643  0.00  0.00    +0.000 A 
ATOM      2  C14 UNL     1      -0.770   4.062  -1.597  0.00  0.00    +0.000 A 
ATOM      3  C15 UNL     1       0.307   4.866  -1.212  0.00  0.00    +0.000 A 
ATOM      4  C16 UNL     1       1.502   4.218  -0.879  0.00  0.00    +0.000 A 
ATOM      5  N3  UNL     1       2.706   4.707  -0.457  0.00  0.00    +0.000 N 
ATOM      6  N4  UNL     1       3.626   3.769  -0.202  0.00  0.00    +0.000 NA
ATOM      7  C17 UNL     1       3.021   2.608  -0.509  0.00  0.00    +0.000 A 
ATOM      8  C28 UNL     1       1.670   2.838  -0.930  0.00  0.00    +0.000 A 
ATOM      9  C29 UNL     1       0.574   2.045  -1.322  0.00  0.00    +0.000 A 
ATOM     10  H24 UNL     1       0.000   0.000   0.000  0.00  0.00    +0.000 HD
ENDROOT
BRANCH   7  11
ATOM     11  C18 UNL     1       3.730   1.335  -0.360  0.00  0.00    +0.000 A 
ATOM     12  C19 UNL     1       3.525   0.272  -1.240  0.00  0.00    +0.000 A 
ATOM     13  C20 UNL     1       4.202  -0.946  -1.062  0.00  0.00    +0.000 A 
ATOM     14  C21 UNL     1       5.113  -1.150  -0.015  0.00  0.00    +0.000 A 
ATOM     15  C26 UNL     1       5.318  -0.062   0.847  0.00  0.00    +0.000 A 
ATOM     16  C27 UNL     1       4.646   1.158   0.680  0.00  0.00    +0.000 A 
BRANCH  14  17
ATOM     17  N5  UNL     1       5.771  -2.353   0.158  0.00  0.00    +0.000 N 
ATOM     18  C22 UNL     1       6.417  -2.717   1.430  0.00  0.00    +0.000 C 
ATOM     19  C23 UNL     1       6.514  -4.247   1.558  0.00  0.00    +0.000 C 
ATOM     20  O3  UNL     1       7.253  -4.878   0.503  0.00  0.00    +0.000 OA
ATOM     21  C24 UNL     1       7.192  -4.160  -0.738  0.00  0.00    +0.000 C 
ATOM     22  C25 UNL     1       5.906  -3.337  -0.928  0.00  0.00    +0.000 C 
ENDBRANCH  14  17
ENDBRANCH   7  11
BRANCH   1  24
ATOM     23  O1  UNL     1      -1.601   0.866  -2.792  0.00  0.00    +0.000 OA
ATOM     24  C1  UNL     1      -1.784   1.809  -2.032  0.00  0.00    +0.000 C 
ATOM     25  N1  UNL     1      -2.988   2.140  -1.452  0.00  0.00    +0.000 N 
ATOM     26  H1  UNL     1       0.000   0.000   0.000  0.00  0.00    +0.000 HD
BRANCH  25  27
ATOM     27  C2  UNL     1      -4.146   1.254  -1.507  0.00  0.00    +0.000 C 
BRANCH  27  28
ATOM     28  C3  UNL     1      -4.381   0.444  -0.163  0.00  0.00    +0.000 C 
ATOM     29  C8  UNL     1      -5.581  -0.532  -0.379  0.00  0.00    +0.000 C 
ATOM     30  C9  UNL     1      -6.934   0.153  -0.205  0.00  0.00    +0.000 C 
ATOM     31  C10 UNL     1      -7.126   0.671   1.220  0.00  0.00    +0.000 C 
ATOM     32  C11 UNL     1      -5.813   1.028   1.916  0.00  0.00    +0.000 C 
ATOM     33  C12 UNL     1      -4.762   1.516   0.921  0.00  0.00    +0.000 C 
BRANCH  28  34
ATOM     34  N2  UNL     1      -3.120  -0.286   0.185  0.00  0.00    +0.000 NA
ATOM     35  C4  UNL     1      -2.994  -0.787   1.567  0.00  0.00    +0.000 C 
ATOM     36  C5  UNL     1      -1.600  -1.399   1.815  0.00  0.00    +0.000 C 
ATOM     37  O2  UNL     1      -1.321  -2.465   0.902  0.00  0.00    +0.000 OA
ATOM     38  C6  UNL     1      -1.398  -1.980  -0.445  0.00  0.00    +0.000 C 
ATOM     39  C7  UNL     1      -2.792  -1.405  -0.737  0.00  0.00    +0.000 C 
ENDBRANCH  28  34
ENDBRANCH  27  28
ENDBRANCH  25  27
ENDBRANCH   1  24
TORSDOF 6
