REMARK  Name = candid1.pdb
REMARK  8 active torsions:
REMARK  status: ('A' for Active; 'I' for Inactive)
REMARK    1  A    between atoms: C1_1  and  C2_2
REMARK    2  A    between atoms: C6_9  and  N3_10
REMARK    3  A    between atoms: C9_14  and  C10_16
REMARK    4  A    between atoms: C10_16  and  C11_17
REMARK    5  A    between atoms: C10_16  and  C18_26
REMARK    6  A    between atoms: C11_17  and  C12_18
REMARK    7  A    between atoms: C18_26  and  C19_27
REMARK    8  A    between atoms: C19_27  and  N5_28
REMARK                            x       y       z     vdW  Elec       q    Type
REMARK                         _______ _______ _______ _____ _____    ______ ____
ROOT
ATOM      1  N3  UNL     1       3.022   0.466  -0.112  0.00  0.00    +0.000 N 
ATOM      2  C7  UNL     1       2.155  -0.460   0.664  0.00  0.00    +0.000 C 
ATOM      3  C8  UNL     1       0.662  -0.119   0.495  0.00  0.00    +0.000 C 
ATOM      4  N4  UNL     1       0.230  -0.156  -0.914  0.00  0.00    +0.000 N 
ATOM      5  C9  UNL     1      -1.049  -0.438  -1.381  0.00  0.00    +0.000 C 
ATOM      6  O1  UNL     1      -1.253  -0.568  -2.591  0.00  0.00    +0.000 OA
ATOM      7  C22 UNL     1       1.307   0.016  -1.904  0.00  0.00    +0.000 C 
ATOM      8  C23 UNL     1       2.425   0.935  -1.389  0.00  0.00    +0.000 C 
ENDROOT
BRANCH   1  17
ATOM      9  C1  UNL     1       5.196   2.414   1.494  0.00  0.00    +0.000 C 
ATOM     10  C2  UNL     1       5.247   0.927   1.832  0.00  0.00    +0.000 C 
ATOM     11  S1  UNL     1       6.797   0.584   2.765  0.00  0.00    +0.000 S 
ATOM     12  C3  UNL     1       7.547  -0.417   1.437  0.00  0.00    +0.000 C 
ATOM     13  C4  UNL     1       6.481  -0.624   0.400  0.00  0.00    +0.000 A 
ATOM     14  N1  UNL     1       6.704  -1.419  -0.659  0.00  0.00    +0.000 NA
ATOM     15  C5  UNL     1       5.673  -1.524  -1.508  0.00  0.00    +0.000 A 
ATOM     16  N2  UNL     1       4.471  -0.932  -1.384  0.00  0.00    +0.000 NA
ATOM     17  C6  UNL     1       4.283  -0.143  -0.309  0.00  0.00    +0.000 A 
ATOM     18  C24 UNL     1       5.291   0.049   0.620  0.00  0.00    +0.000 A 
ENDBRANCH   1  17
BRANCH   5  19
ATOM     19  C10 UNL     1      -2.197  -0.546  -0.365  0.00  0.00    +0.000 C 
BRANCH  19  20
ATOM     20  C11 UNL     1      -2.572   0.839   0.196  0.00  0.00    +0.000 C 
BRANCH  20  21
ATOM     21  C12 UNL     1      -3.558   0.786   1.341  0.00  0.00    +0.000 A 
ATOM     22  C13 UNL     1      -4.910   1.097   1.127  0.00  0.00    +0.000 A 
ATOM     23  C14 UNL     1      -5.829   1.046   2.180  0.00  0.00    +0.000 A 
ATOM     24  C15 UNL     1      -5.401   0.681   3.457  0.00  0.00    +0.000 A 
ATOM     25 CL1  UNL     1      -6.536   0.621   4.750  0.00  0.00    +0.000 Cl
ATOM     26  C16 UNL     1      -4.061   0.366   3.674  0.00  0.00    +0.000 A 
ATOM     27  F1  UNL     1      -3.627   0.006   4.893  0.00  0.00    +0.000 F 
ATOM     28  C17 UNL     1      -3.141   0.416   2.628  0.00  0.00    +0.000 A 
ENDBRANCH  20  21
ENDBRANCH  19  20
BRANCH  19  29
ATOM     29  C18 UNL     1      -3.381  -1.378  -0.912  0.00  0.00    +0.000 C 
BRANCH  29  30
ATOM     30  C19 UNL     1      -4.200  -0.854  -2.092  0.00  0.00    +0.000 C 
ATOM     31  C20 UNL     1      -5.649  -1.302  -2.176  0.00  0.00    +0.000 C 
ATOM     32  C21 UNL     1      -4.641  -1.884  -3.119  0.00  0.00    +0.000 C 
BRANCH  30  33
ATOM     33  N5  UNL     1      -3.896   0.490  -2.612  0.00  0.00    +0.000 NA
ATOM     34  H20 UNL     1       0.000   0.000   0.000  0.00  0.00    +0.000 HD
ATOM     35  H21 UNL     1       0.000   0.000   0.000  0.00  0.00    +0.000 HD
ENDBRANCH  30  33
ENDBRANCH  29  30
ENDBRANCH  19  29
ENDBRANCH   5  19
TORSDOF 7
