REMARK  Name = candid2.pdb
REMARK  8 active torsions:
REMARK  status: ('A' for Active; 'I' for Inactive)
REMARK    1  A    between atoms: C1_1  and  C2_2
REMARK    2  A    between atoms: C6_9  and  N3_10
REMARK    3  A    between atoms: C9_14  and  C10_16
REMARK    4  A    between atoms: C10_16  and  C11_17
REMARK    5  A    between atoms: C10_16  and  C18_26
REMARK    6  A    between atoms: C11_17  and  C12_18
REMARK    7  A    between atoms: C18_26  and  C19_27
REMARK    8  A    between atoms: C19_27  and  N5_28
REMARK                            x       y       z     vdW  Elec       q    Type
REMARK                         _______ _______ _______ _____ _____    ______ ____
ROOT
ATOM      1  N3  UNL     1       2.909  -0.220   0.680  0.00  0.00    +0.000 N 
ATOM      2  C7  UNL     1       2.105  -0.473   1.905  0.00  0.00    +0.000 C 
ATOM      3  C8  UNL     1       0.723   0.202   1.873  0.00  0.00    +0.000 C 
ATOM      4  N4  UNL     1      -0.066  -0.203   0.697  0.00  0.00    +0.000 N 
ATOM      5  C9  UNL     1      -1.436  -0.372   0.846  0.00  0.00    +0.000 C 
ATOM      6  O1  UNL     1      -1.991  -0.157   1.926  0.00  0.00    +0.000 OA
ATOM      7  C22 UNL     1       0.721  -0.573  -0.489  0.00  0.00    +0.000 C 
ATOM      8  C23 UNL     1       2.098   0.117  -0.518  0.00  0.00    +0.000 C 
ENDROOT
BRANCH   1  17
ATOM      9  C1  UNL     1       5.873  -1.701   0.272  0.00  0.00    +0.000 C 
ATOM     10  C2  UNL     1       5.631  -0.433  -0.540  0.00  0.00    +0.000 C 
ATOM     11  S1  UNL     1       7.235   0.142  -1.236  0.00  0.00    +0.000 S 
ATOM     12  C3  UNL     1       7.319   1.634  -0.189  0.00  0.00    +0.000 C 
ATOM     13  C4  UNL     1       5.985   1.757   0.487  0.00  0.00    +0.000 A 
ATOM     14  N1  UNL     1       5.696   2.835   1.234  0.00  0.00    +0.000 NA
ATOM     15  C5  UNL     1       4.472   2.827   1.778  0.00  0.00    +0.000 A 
ATOM     16  N2  UNL     1       3.543   1.865   1.639  0.00  0.00    +0.000 NA
ATOM     17  C6  UNL     1       3.870   0.797   0.885  0.00  0.00    +0.000 A 
ATOM     18  C24 UNL     1       5.112   0.701   0.287  0.00  0.00    +0.000 A 
ENDBRANCH   1  17
BRANCH   5  19
ATOM     19  C10 UNL     1      -2.254  -0.787  -0.380  0.00  0.00    +0.000 C 
BRANCH  19  20
ATOM     20  C11 UNL     1      -2.526   0.431  -1.291  0.00  0.00    +0.000 C 
BRANCH  20  21
ATOM     21  C12 UNL     1      -3.439   1.510  -0.749  0.00  0.00    +0.000 A 
ATOM     22  C13 UNL     1      -4.770   1.601  -1.185  0.00  0.00    +0.000 A 
ATOM     23  C14 UNL     1      -5.616   2.602  -0.697  0.00  0.00    +0.000 A 
ATOM     24  C15 UNL     1      -5.135   3.528   0.227  0.00  0.00    +0.000 A 
ATOM     25 CL1  UNL     1      -6.182   4.761   0.816  0.00  0.00    +0.000 Cl
ATOM     26  C16 UNL     1      -3.814   3.451   0.658  0.00  0.00    +0.000 A 
ATOM     27  F1  UNL     1      -3.326   4.341   1.536  0.00  0.00    +0.000 F 
ATOM     28  C17 UNL     1      -2.968   2.454   0.176  0.00  0.00    +0.000 A 
ENDBRANCH  20  21
ENDBRANCH  19  20
BRANCH  19  29
ATOM     29  C18 UNL     1      -3.519  -1.551   0.071  0.00  0.00    +0.000 C 
BRANCH  29  30
ATOM     30  C19 UNL     1      -4.021  -2.541  -0.974  0.00  0.00    +0.000 C 
ATOM     31  C20 UNL     1      -3.246  -3.825  -1.156  0.00  0.00    +0.000 C 
ATOM     32  C21 UNL     1      -4.582  -3.854  -0.475  0.00  0.00    +0.000 C 
BRANCH  30  33
ATOM     33  N5  UNL     1      -4.676  -1.957  -2.153  0.00  0.00    +0.000 NA
ATOM     34  H20 UNL     1       0.000   0.000   0.000  0.00  0.00    +0.000 HD
ATOM     35  H21 UNL     1       0.000   0.000   0.000  0.00  0.00    +0.000 HD
ENDBRANCH  30  33
ENDBRANCH  29  30
ENDBRANCH  19  29
ENDBRANCH   5  19
TORSDOF 7
