REMARK  Name = candid5.pdb
REMARK  10 active torsions:
REMARK  status: ('A' for Active; 'I' for Inactive)
REMARK    1  A    between atoms: C1_1  and  C2_2
REMARK    2  A    between atoms: C6_9  and  N3_10
REMARK    3  A    between atoms: C9_14  and  C10_16
REMARK    4  A    between atoms: C10_16  and  C11_17
REMARK    5  A    between atoms: C10_16  and  C18_25
REMARK    6  A    between atoms: C11_17  and  C12_18
REMARK    7  A    between atoms: C18_25  and  C19_26
REMARK    8  A    between atoms: C19_26  and  C20_27
REMARK    9  A    between atoms: C19_26  and  C21_28
REMARK   10  A    between atoms: C19_26  and  N5_29
REMARK                            x       y       z     vdW  Elec       q    Type
REMARK                         _______ _______ _______ _____ _____    ______ ____
ROOT
ATOM      1  N3  UNL     1       2.685  -0.027  -0.811  0.00  0.00    +0.000 N 
ATOM      2  C7  UNL     1       1.830  -0.367   0.351  0.00  0.00    +0.000 C 
ATOM      3  C8  UNL     1       0.456  -0.935  -0.056  0.00  0.00    +0.000 C 
ATOM      4  N4  UNL     1      -0.227  -0.089  -1.041  0.00  0.00    +0.000 N 
ATOM      5  C9  UNL     1      -1.574   0.214  -1.115  0.00  0.00    +0.000 C 
ATOM      6  O1  UNL     1      -2.010   0.865  -2.072  0.00  0.00    +0.000 OA
ATOM      7  C22 UNL     1       0.634   0.425  -2.119  0.00  0.00    +0.000 C 
ATOM      8  C23 UNL     1       2.039  -0.201  -2.131  0.00  0.00    +0.000 C 
ENDROOT
BRANCH   1  17
ATOM      9  C1  UNL     1       4.737   2.392   0.224  0.00  0.00    +0.000 C 
ATOM     10  C2  UNL     1       4.788   1.091   1.019  0.00  0.00    +0.000 C 
ATOM     11  S1  UNL     1       6.286   1.104   2.088  0.00  0.00    +0.000 S 
ATOM     12  C3  UNL     1       7.118  -0.247   1.188  0.00  0.00    +0.000 C 
ATOM     13  C4  UNL     1       6.117  -0.795   0.213  0.00  0.00    +0.000 A 
ATOM     14  N1  UNL     1       6.417  -1.866  -0.539  0.00  0.00    +0.000 NA
ATOM     15  C5  UNL     1       5.451  -2.243  -1.383  0.00  0.00    +0.000 A 
ATOM     16  N2  UNL     1       4.240  -1.673  -1.515  0.00  0.00    +0.000 NA
ATOM     17  C6  UNL     1       3.959  -0.615  -0.732  0.00  0.00    +0.000 A 
ATOM     18  C24 UNL     1       4.907  -0.121   0.148  0.00  0.00    +0.000 A 
ENDBRANCH   1  17
BRANCH   5  19
ATOM     19  C10 UNL     1      -2.557  -0.231  -0.028  0.00  0.00    +0.000 C 
BRANCH  19  20
ATOM     20  C11 UNL     1      -2.327   0.502   1.307  0.00  0.00    +0.000 C 
BRANCH  20  21
ATOM     21  C12 UNL     1      -2.658   1.976   1.236  0.00  0.00    +0.000 A 
ATOM     22  C13 UNL     1      -1.645   2.926   1.034  0.00  0.00    +0.000 A 
ATOM     23  C14 UNL     1      -1.960   4.284   0.952  0.00  0.00    +0.000 A 
ATOM     24  C15 UNL     1      -3.288   4.698   1.067  0.00  0.00    +0.000 A 
ATOM     25 CL1  UNL     1      -3.675   6.372   0.965  0.00  0.00    +0.000 Cl
ATOM     26  C16 UNL     1      -4.304   3.765   1.262  0.00  0.00    +0.000 A 
ATOM     27  C17 UNL     1      -3.990   2.407   1.345  0.00  0.00    +0.000 A 
ENDBRANCH  20  21
ENDBRANCH  19  20
BRANCH  19  28
ATOM     28  C18 UNL     1      -2.604  -1.772   0.121  0.00  0.00    +0.000 C 
BRANCH  28  29
ATOM     29  C19 UNL     1      -4.020  -2.403   0.069  0.00  0.00    +0.000 C 
ATOM     30  C20 UNL     1      -3.906  -3.914   0.348  0.00  0.00    +0.000 C 
ATOM     31  C21 UNL     1      -4.677  -2.205  -1.305  0.00  0.00    +0.000 C 
BRANCH  29  32
ATOM     32  N5  UNL     1      -4.874  -1.804   1.101  0.00  0.00    +0.000 NA
ATOM     33  H27 UNL     1       0.000   0.000   0.000  0.00  0.00    +0.000 HD
ATOM     34  H28 UNL     1       0.000   0.000   0.000  0.00  0.00    +0.000 HD
ENDBRANCH  29  32
ENDBRANCH  28  29
ENDBRANCH  19  28
ENDBRANCH   5  19
TORSDOF 7
