REMARK  Name = candid4.pdb
REMARK  10 active torsions:
REMARK  status: ('A' for Active; 'I' for Inactive)
REMARK    1  A    between atoms: C1_1  and  C2_2
REMARK    2  A    between atoms: C6_9  and  N3_10
REMARK    3  A    between atoms: C9_14  and  C10_16
REMARK    4  A    between atoms: C10_16  and  C11_17
REMARK    5  A    between atoms: C10_16  and  C18_25
REMARK    6  A    between atoms: C11_17  and  C12_18
REMARK    7  A    between atoms: C18_25  and  C19_26
REMARK    8  A    between atoms: C19_26  and  C20_27
REMARK    9  A    between atoms: C19_26  and  C21_28
REMARK   10  A    between atoms: C19_26  and  N5_29
REMARK                            x       y       z     vdW  Elec       q    Type
REMARK                         _______ _______ _______ _____ _____    ______ ____
ROOT
ATOM      1  N3  UNL     1       2.963  -0.216   0.026  0.00  0.00    +0.000 N 
ATOM      2  C7  UNL     1       2.003  -0.936   0.901  0.00  0.00    +0.000 C 
ATOM      3  C8  UNL     1       0.650  -0.212   1.028  0.00  0.00    +0.000 C 
ATOM      4  N4  UNL     1       0.020  -0.010  -0.289  0.00  0.00    +0.000 N 
ATOM      5  C9  UNL     1      -1.318  -0.197  -0.606  0.00  0.00    +0.000 C 
ATOM      6  O1  UNL     1      -1.690  -0.146  -1.782  0.00  0.00    +0.000 OA
ATOM      7  C22 UNL     1       0.954   0.212  -1.400  0.00  0.00    +0.000 C 
ATOM      8  C23 UNL     1       2.329   0.720  -0.938  0.00  0.00    +0.000 C 
ENDROOT
BRANCH   1  17
ATOM      9  C1  UNL     1       5.832  -1.616  -0.900  0.00  0.00    +0.000 C 
ATOM     10  C2  UNL     1       5.777  -0.093  -0.982  0.00  0.00    +0.000 C 
ATOM     11  S1  UNL     1       7.488   0.552  -1.195  0.00  0.00    +0.000 S 
ATOM     12  C3  UNL     1       7.554   1.333   0.452  0.00  0.00    +0.000 C 
ATOM     13  C4  UNL     1       6.163   1.264   1.015  0.00  0.00    +0.000 A 
ATOM     14  N1  UNL     1       5.870   1.853   2.185  0.00  0.00    +0.000 NA
ATOM     15  C5  UNL     1       4.601   1.704   2.584  0.00  0.00    +0.000 A 
ATOM     16  N2  UNL     1       3.628   1.043   1.931  0.00  0.00    +0.000 NA
ATOM     17  C6  UNL     1       3.958   0.465   0.760  0.00  0.00    +0.000 A 
ATOM     18  C24 UNL     1       5.247   0.544   0.265  0.00  0.00    +0.000 A 
ENDBRANCH   1  17
BRANCH   5  19
ATOM     19  C10 UNL     1      -2.325  -0.417   0.529  0.00  0.00    +0.000 C 
BRANCH  19  20
ATOM     20  C11 UNL     1      -2.562   0.911   1.287  0.00  0.00    +0.000 C 
BRANCH  20  21
ATOM     21  C12 UNL     1      -3.419   1.942   0.583  0.00  0.00    +0.000 A 
ATOM     22  C13 UNL     1      -2.900   2.715  -0.465  0.00  0.00    +0.000 A 
ATOM     23  C14 UNL     1      -3.701   3.655  -1.117  0.00  0.00    +0.000 A 
ATOM     24  C15 UNL     1      -5.025   3.832  -0.722  0.00  0.00    +0.000 A 
ATOM     25 CL1  UNL     1      -6.013   4.989  -1.525  0.00  0.00    +0.000 Cl
ATOM     26  C16 UNL     1      -5.554   3.079   0.323  0.00  0.00    +0.000 A 
ATOM     27  C17 UNL     1      -4.753   2.138   0.973  0.00  0.00    +0.000 A 
ENDBRANCH  20  21
ENDBRANCH  19  20
BRANCH  19  28
ATOM     28  C18 UNL     1      -3.650  -1.047   0.027  0.00  0.00    +0.000 C 
BRANCH  28  29
ATOM     29  C19 UNL     1      -3.644  -2.591  -0.139  0.00  0.00    +0.000 C 
ATOM     30  C20 UNL     1      -2.551  -3.104  -1.085  0.00  0.00    +0.000 C 
ATOM     31  C21 UNL     1      -5.017  -3.040  -0.675  0.00  0.00    +0.000 C 
BRANCH  29  32
ATOM     32  N5  UNL     1      -3.435  -3.214   1.180  0.00  0.00    +0.000 NA
ATOM     33  H27 UNL     1       0.000   0.000   0.000  0.00  0.00    +0.000 HD
ATOM     34  H28 UNL     1       0.000   0.000   0.000  0.00  0.00    +0.000 HD
ENDBRANCH  29  32
ENDBRANCH  28  29
ENDBRANCH  19  28
ENDBRANCH   5  19
TORSDOF 7
