REMARK  Name = candid8.pdb
REMARK  10 active torsions:
REMARK  status: ('A' for Active; 'I' for Inactive)
REMARK    1  A    between atoms: C1_1  and  C2_2
REMARK    2  A    between atoms: C6_9  and  N3_10
REMARK    3  A    between atoms: C9_14  and  C10_16
REMARK    4  A    between atoms: C10_16  and  C11_17
REMARK    5  A    between atoms: C10_16  and  C18_26
REMARK    6  A    between atoms: C11_17  and  C12_18
REMARK    7  A    between atoms: C18_26  and  C19_27
REMARK    8  A    between atoms: C19_27  and  C20_28
REMARK    9  A    between atoms: C19_27  and  C21_29
REMARK   10  A    between atoms: C19_27  and  N5_30
REMARK                            x       y       z     vdW  Elec       q    Type
REMARK                         _______ _______ _______ _____ _____    ______ ____
ROOT
ATOM      1  N3  UNL     1       2.658   0.394   0.606  0.00  0.00    +0.000 N 
ATOM      2  C7  UNL     1       1.730   1.546   0.614  0.00  0.00    +0.000 C 
ATOM      3  C8  UNL     1       0.312   1.162   0.153  0.00  0.00    +0.000 C 
ATOM      4  N4  UNL     1      -0.245   0.029   0.908  0.00  0.00    +0.000 N 
ATOM      5  C9  UNL     1      -1.585  -0.315   0.949  0.00  0.00    +0.000 C 
ATOM      6  O2  UNL     1      -2.012  -1.143   1.757  0.00  0.00    +0.000 OA
ATOM      7  C22 UNL     1       0.701  -0.687   1.771  0.00  0.00    +0.000 C 
ATOM      8  C23 UNL     1       2.068  -0.883   1.087  0.00  0.00    +0.000 C 
ENDROOT
BRANCH   1  17
ATOM      9  C1  UNL     1       5.960  -0.173   1.404  0.00  0.00    +0.000 C 
ATOM     10  C2  UNL     1       5.349  -1.131   0.393  0.00  0.00    +0.000 C 
ATOM     11  O1  UNL     1       6.426  -1.788  -0.331  0.00  0.00    +0.000 OA
ATOM     12  C3  UNL     1       6.461  -1.294  -1.693  0.00  0.00    +0.000 C 
ATOM     13  C4  UNL     1       5.177  -0.555  -1.862  0.00  0.00    +0.000 A 
ATOM     14  N1  UNL     1       4.742  -0.011  -3.005  0.00  0.00    +0.000 NA
ATOM     15  C5  UNL     1       3.589   0.656  -2.868  0.00  0.00    +0.000 A 
ATOM     16  N2  UNL     1       2.877   0.809  -1.729  0.00  0.00    +0.000 NA
ATOM     17  C6  UNL     1       3.357   0.238  -0.603  0.00  0.00    +0.000 A 
ATOM     18  C24 UNL     1       4.538  -0.463  -0.651  0.00  0.00    +0.000 A 
ENDBRANCH   1  17
BRANCH   5  19
ATOM     19  C10 UNL     1      -2.520   0.289  -0.099  0.00  0.00    +0.000 C 
BRANCH  19  20
ATOM     20  C11 UNL     1      -3.961   0.402   0.451  0.00  0.00    +0.000 C 
BRANCH  20  21
ATOM     21  C12 UNL     1      -4.144   1.658   1.280  0.00  0.00    +0.000 A 
ATOM     22  C13 UNL     1      -4.588   2.847   0.678  0.00  0.00    +0.000 A 
ATOM     23  C14 UNL     1      -4.730   4.016   1.432  0.00  0.00    +0.000 A 
ATOM     24  C15 UNL     1      -4.422   4.005   2.793  0.00  0.00    +0.000 A 
ATOM     25 CL1  UNL     1      -4.590   5.453   3.709  0.00  0.00    +0.000 Cl
ATOM     26  C16 UNL     1      -3.978   2.828   3.395  0.00  0.00    +0.000 A 
ATOM     27  F1  UNL     1      -3.671   2.800   4.702  0.00  0.00    +0.000 F 
ATOM     28  C17 UNL     1      -3.838   1.659   2.650  0.00  0.00    +0.000 A 
ENDBRANCH  20  21
ENDBRANCH  19  20
BRANCH  19  29
ATOM     29  C18 UNL     1      -2.459  -0.475  -1.446  0.00  0.00    +0.000 C 
BRANCH  29  30
ATOM     30  C19 UNL     1      -2.542  -2.029  -1.486  0.00  0.00    +0.000 C 
ATOM     31  C20 UNL     1      -2.989  -2.449  -2.903  0.00  0.00    +0.000 C 
ATOM     32  C21 UNL     1      -1.179  -2.691  -1.217  0.00  0.00    +0.000 C 
BRANCH  30  33
ATOM     33  N5  UNL     1      -3.522  -2.584  -0.555  0.00  0.00    +0.000 NA
ATOM     34  H26 UNL     1       0.000   0.000   0.000  0.00  0.00    +0.000 HD
ATOM     35  H27 UNL     1       0.000   0.000   0.000  0.00  0.00    +0.000 HD
ENDBRANCH  30  33
ENDBRANCH  29  30
ENDBRANCH  19  29
ENDBRANCH   5  19
TORSDOF 7
