REMARK  Name = candid9.pdb
REMARK  9 active torsions:
REMARK  status: ('A' for Active; 'I' for Inactive)
REMARK    1  A    between atoms: C1_1  and  C2_2
REMARK    2  A    between atoms: C2_2  and  C3_3
REMARK    3  A    between atoms: C2_2  and  N1_4
REMARK    4  A    between atoms: N1_4  and  C4_5
REMARK    5  A    between atoms: C4_5  and  C5_6
REMARK    6  A    between atoms: C5_6  and  C6_7
REMARK    7  A    between atoms: C5_6  and  C19_26
REMARK    8  A    between atoms: C13_19  and  C14_20
REMARK    9  A    between atoms: C16_22  and  O2_23
REMARK                            x       y       z     vdW  Elec       q    Type
REMARK                         _______ _______ _______ _____ _____    ______ ____
ROOT
ATOM      1  C6  UNL     1      -1.540   0.707  -0.301  0.00  0.00    +0.000 C 
ATOM      2  O1  UNL     1      -1.841   1.898  -0.458  0.00  0.00    +0.000 OA
ATOM      3  N2  UNL     1      -0.228   0.289  -0.467  0.00  0.00    +0.000 N 
ATOM      4  C7  UNL     1       0.807   1.307  -0.715  0.00  0.00    +0.000 C 
ATOM      5  C8  UNL     1       2.171   0.903  -0.127  0.00  0.00    +0.000 C 
ATOM      6  N3  UNL     1       2.653  -0.389  -0.680  0.00  0.00    +0.000 N 
ATOM      7  C9  UNL     1       3.501  -1.022   0.247  0.00  0.00    +0.000 A 
ATOM      8  N4  UNL     1       3.018  -2.040   0.991  0.00  0.00    +0.000 NA
ATOM      9  C10 UNL     1       3.838  -2.586   1.916  0.00  0.00    +0.000 A 
ATOM     10  N5  UNL     1       5.103  -2.232   2.177  0.00  0.00    +0.000 NA
ATOM     11  C11 UNL     1       5.547  -1.237   1.398  0.00  0.00    +0.000 A 
ATOM     12  C12 UNL     1       4.803  -0.604   0.413  0.00  0.00    +0.000 A 
ATOM     13  C13 UNL     1       5.622   0.458  -0.263  0.00  0.00    +0.000 C 
ATOM     14  C14 UNL     1       5.472   0.583  -1.773  0.00  0.00    +0.000 C 
ATOM     15  C15 UNL     1       7.053   0.001   0.106  0.00  0.00    +0.000 C 
ATOM     16  C16 UNL     1       6.936  -0.658   1.485  0.00  0.00    +0.000 C 
ATOM     17  C17 UNL     1       1.589  -1.272  -1.208  0.00  0.00    +0.000 C 
ATOM     18  C18 UNL     1       0.249  -1.105  -0.468  0.00  0.00    +0.000 C 
ENDROOT
BRANCH  16  19
ATOM     19  O2  UNL     1       6.997   0.339   2.497  0.00  0.00    +0.000 OA
ATOM     20  H24 UNL     1       0.000   0.000   0.000  0.00  0.00    +0.000 HD
ENDBRANCH  16  19
BRANCH   1  21
ATOM     21  C5  UNL     1      -2.616  -0.326   0.084  0.00  0.00    +0.000 C 
BRANCH  21  22
ATOM     22  C19 UNL     1      -3.213  -0.077   1.469  0.00  0.00    +0.000 A 
ATOM     23  C20 UNL     1      -3.792   1.154   1.828  0.00  0.00    +0.000 A 
ATOM     24  C21 UNL     1      -4.327   1.357   3.105  0.00  0.00    +0.000 A 
ATOM     25  C22 UNL     1      -4.299   0.327   4.043  0.00  0.00    +0.000 A 
ATOM     26 CL1  UNL     1      -4.960   0.587   5.611  0.00  0.00    +0.000 Cl
ATOM     27  C23 UNL     1      -3.737  -0.899   3.701  0.00  0.00    +0.000 A 
ATOM     28  F1  UNL     1      -3.696  -1.909   4.589  0.00  0.00    +0.000 F 
ATOM     29  C24 UNL     1      -3.200  -1.106   2.429  0.00  0.00    +0.000 A 
ENDBRANCH  21  22
BRANCH  21  30
ATOM     30  C4  UNL     1      -3.663  -0.447  -1.056  0.00  0.00    +0.000 C 
BRANCH  30  31
ATOM     31  N1  UNL     1      -4.477   0.756  -1.290  0.00  0.00    +0.000 NA
ATOM     32  H8  UNL     1       0.000   0.000   0.000  0.00  0.00    +0.000 HD
BRANCH  31  34
ATOM     33  C1  UNL     1      -6.306  -0.356  -2.565  0.00  0.00    +0.000 C 
ATOM     34  C2  UNL     1      -5.228   0.732  -2.551  0.00  0.00    +0.000 C 
ATOM     35  C3  UNL     1      -5.879   2.103  -2.736  0.00  0.00    +0.000 C 
ENDBRANCH  31  34
ENDBRANCH  30  31
ENDBRANCH  21  30
ENDBRANCH   1  21
TORSDOF 6
