REMARK  5 active torsions:
REMARK  status: ('A' for Active; 'I' for Inactive)
REMARK    1  A    between atoms: N4_12  and  C9_13 
REMARK       I    between atoms: N5_18  and  C14_19 
REMARK    2  A    between atoms: C14_19  and  C15_21 
REMARK    3  A    between atoms: C17_23  and  O2_24 
REMARK    4  A    between atoms: C21_28  and  N6_29 
REMARK    5  A    between atoms: N6_29  and  C22_30 
ROOT
HETATM    1  C1  UNL     1      -6.197  -0.528   0.340  1.00  0.00     0.177 A 
HETATM    2  C2  UNL     1      -6.580  -0.118   1.615  1.00  0.00     0.102 A 
HETATM    3  C3  UNL     1      -5.541   0.421   2.359  1.00  0.00     0.170 A 
HETATM    4  N1  UNL     1      -4.270   0.574   1.936  1.00  0.00    -0.073 NA
HETATM    5  N2  UNL     1      -4.919  -0.386  -0.101  1.00  0.00    -0.042 NA
HETATM    6  C22 UNL     1      -3.998   0.169   0.697  1.00  0.00     0.729 A 
HETATM    7  N7  UNL     1      -7.126  -1.145  -0.536  1.00  0.00    -0.333 N 
HETATM    8  C23 UNL     1      -6.475  -1.962  -1.565  1.00  0.00     0.158 C 
HETATM    9  C24 UNL     1      -8.289  -0.445  -0.909  1.00  0.00     0.051 A 
HETATM   10  C25 UNL     1      -8.566  -0.117  -2.253  1.00  0.00     0.031 A 
HETATM   11  C26 UNL     1      -9.710   0.597  -2.621  1.00  0.00     0.002 A 
HETATM   12  C27 UNL     1     -10.616   0.999  -1.652  1.00  0.00     0.001 A 
HETATM   13  C28 UNL     1     -10.371   0.684  -0.320  1.00  0.00     0.019 A 
HETATM   14  C29 UNL     1      -9.210  -0.023   0.058  1.00  0.00     0.059 A 
HETATM   15  C30 UNL     1      -9.095  -0.372   1.494  1.00  0.00     0.260 C 
HETATM   16  O3  UNL     1     -10.158  -0.614   2.076  1.00  0.00    -0.267 OA
HETATM   17  N8  UNL     1      -7.880  -0.309   2.187  1.00  0.00    -0.314 N 
HETATM   18  C31 UNL     1      -7.969  -0.404   3.645  1.00  0.00     0.160 C 
ENDROOT
BRANCH   6  19
HETATM   19  N6  UNL     1      -2.740   0.302   0.133  1.00  0.00    -0.185 N 
HETATM   20  H28 UNL     1      -2.747  -0.013  -0.830  1.00  0.00     0.184 HD
BRANCH  19  21
HETATM   21  C21 UNL     1      -1.476   0.695   0.598  1.00  0.00     0.082 A 
HETATM   22  C17 UNL     1      -0.411   0.747  -0.336  1.00  0.00     0.096 A 
HETATM   23  C16 UNL     1       0.875   1.108   0.075  1.00  0.00     0.056 A 
HETATM   24  C15 UNL     1       1.117   1.403   1.421  1.00  0.00     0.035 A 
HETATM   25  C19 UNL     1       0.065   1.409   2.339  1.00  0.00     0.019 A 
HETATM   26  C20 UNL     1      -1.221   1.053   1.926  1.00  0.00     0.034 A 
BRANCH  22  27
HETATM   27  O2  UNL     1      -0.751   0.402  -1.626  1.00  0.00    -0.354 OA
HETATM   28  C18 UNL     1       0.240   0.589  -2.629  1.00  0.00     0.210 C 
ENDBRANCH  22  27
BRANCH  24  29
HETATM   29  C14 UNL     1       2.481   1.763   1.881  1.00  0.00     0.253 C 
HETATM   30  N5  UNL     1       3.562   0.981   1.452  1.00  0.00    -0.348 N 
HETATM   31  C11 UNL     1       4.895   1.443   1.827  1.00  0.00     0.128 C 
HETATM   32  C13 UNL     1       3.443  -0.467   1.262  1.00  0.00     0.128 C 
HETATM   33  C10 UNL     1       5.958   0.959   0.844  1.00  0.00     0.055 C 
HETATM   34  C9  UNL     1       5.890  -0.569   0.664  1.00  0.00     0.226 C 
HETATM   35  C12 UNL     1       4.465  -0.985   0.257  1.00  0.00     0.055 C 
HETATM   36  O1  UNL     1       2.607   2.755   2.596  1.00  0.00    -0.267 OA
BRANCH  34  37
HETATM   37  N4  UNL     1       6.872  -1.142  -0.272  1.00  0.00     0.096 N 
HETATM   38  C4  UNL     1       6.917  -0.551  -1.623  1.00  0.00     0.303 C 
HETATM   39  C5  UNL     1       8.193   0.267  -1.930  1.00  0.00     0.302 C 
HETATM   40  N3  UNL     1       9.462  -0.455  -1.709  1.00  0.00     0.087 N 
HETATM   41  C6  UNL     1      10.032  -0.950  -2.959  1.00  0.00     0.310 C 
HETATM   42  C7  UNL     1       9.295  -1.560  -0.743  1.00  0.00     0.302 C 
HETATM   43  C8  UNL     1       8.219  -1.258   0.320  1.00  0.00     0.303 C 
ENDBRANCH  34  37
ENDBRANCH  24  29
ENDBRANCH  19  21
ENDBRANCH   6  19
TORSDOF 5
